"""
 Hydrogen mechanism, from :
 Yetter, R.A., Dryer, F.L., and Rabitz, H., Comb. Sci. & Tech.,
 vol. 79, pp. 97-128 (1991)

"""

units(length='cm', time='s', quantity='mol', act_energy='cal/mol')

ideal_gas(name='gas',
          elements="H O N",
          species="""H2    O2    O     OH    H2O   H     HO2   H2O2  N2""",
          reactions='all',
          initial_state=state(temperature=300.0, pressure=OneAtm))

#-------------------------------------------------------------------------------
# Species data
#-------------------------------------------------------------------------------

species(name='H2',
        atoms='H:2',
        thermo=(NASA([300.00, 1000.00],
                     [ 3.29812400E+00,  8.24944100E-04, -8.14301500E-07,
                      -9.47543400E-11,  4.13487200E-13, -1.01252090E+03,
                      -3.29409400E+00]),
                NASA([1000.00, 5000.00],
                     [ 2.99142300E+00,  7.00064400E-04, -5.63382800E-08,
                      -9.23157800E-12,  1.58275190E-15, -8.35034000E+02,
                      -1.35511010E+00])),
        note='121286')

species(name='O2',
        atoms='O:2',
        thermo=(NASA([300.00, 1000.00],
                     [ 3.21293600E+00,  1.12748640E-03, -5.75615000E-07,
                       1.31387730E-09, -8.76855400E-13, -1.00524900E+03,
                       6.03473700E+00]),
                NASA([1000.00, 5000.00],
                     [ 3.69757800E+00,  6.13519700E-04, -1.25884200E-07,
                       1.77528100E-11, -1.13643540E-15, -1.23393010E+03,
                       3.18916500E+00])),
        note='121386')

species(name='O',
        atoms='O:1',
        thermo=(NASA([300.00, 1000.00],
                     [ 2.94642800E+00, -1.63816650E-03,  2.42103100E-06,
                      -1.60284310E-09,  3.89069600E-13,  2.91476400E+04,
                       2.96399500E+00]),
                NASA([1000.00, 5000.00],
                     [ 2.54205900E+00, -2.75506100E-05, -3.10280300E-09,
                       4.55106700E-12, -4.36805100E-16,  2.92308000E+04,
                       4.92030800E+00])),
        note='120186')

species(name='OH',
        atoms='H:1 O:1',
        thermo=(NASA([300.00, 1000.00],
                     [ 3.63726600E+00,  1.85091000E-04, -1.67616460E-06,
                       2.38720200E-09, -8.43144200E-13,  3.60678100E+03,
                       1.35886050E+00]),
                NASA([1000.00, 5000.00],
                     [ 2.88273000E+00,  1.01397430E-03, -2.27687700E-07,
                       2.17468300E-11, -5.12630500E-16,  3.88688800E+03,
                       5.59571200E+00])),
        note='121286')

species(name='H2O',
        atoms='H:2 O:1',
        thermo=(NASA([300.00, 1000.00],
                     [ 3.38684200E+00,  3.47498200E-03, -6.35469600E-06,
                       6.96858100E-09, -2.50658800E-12, -3.02081100E+04,
                       2.59023200E+00]),
                NASA([1000.00, 5000.00],
                     [ 2.67214500E+00,  3.05629300E-03, -8.73026000E-07,
                       1.20099640E-10, -6.39161800E-15, -2.98992100E+04,
                       6.86281700E+00])),
        note='20387')

species(name='H',
        atoms='H:1',
        thermo=(NASA([300.00, 1000.00],
                     [ 2.50000000E+00,  0.00000000E+00,  0.00000000E+00,
                       0.00000000E+00,  0.00000000E+00,  2.54716200E+04,
                      -4.60117600E-01]),
                NASA([1000.00, 5000.00],
                     [ 2.50000000E+00,  0.00000000E+00,  0.00000000E+00,
                       0.00000000E+00,  0.00000000E+00,  2.54716200E+04,
                      -4.60117600E-01])),
        note='120186')

species(name='HO2',
        atoms='H:1 O:2',
        thermo=(NASA([300.00, 1000.00],
                     [ 2.97996300E+00,  4.99669700E-03, -3.79099700E-06,
                       2.35419200E-09, -8.08902400E-13,  1.76227300E+02,
                       9.22272400E+00]),
                NASA([1000.00, 5000.00],
                     [ 4.07219100E+00,  2.13129600E-03, -5.30814500E-07,
                       6.11226900E-11, -2.84116400E-15, -1.57972700E+02,
                       3.47602900E+00])),
        note='20387')

species(name='H2O2',
        atoms='H:2 O:2',
        thermo=(NASA([300.00, 1000.00],
                     [ 3.38875300E+00,  6.56922600E-03, -1.48501250E-07,
                      -4.62580500E-09,  2.47151400E-12, -1.76631400E+04,
                       6.78536300E+00]),
                NASA([1000.00, 5000.00],
                     [ 4.57316700E+00,  4.33613600E-03, -1.47468880E-06,
                       2.34890300E-10, -1.43165360E-14, -1.80069600E+04,
                       5.01136900E-01])),
        note='120186')

species(name='N2',
        atoms='N:2',
        thermo=(NASA([300.00, 1000.00],
                     [ 3.29867700E+00,  1.40824040E-03, -3.96322200E-06,
                       5.64151500E-09, -2.44485400E-12, -1.02089990E+03,
                       3.95037200E+00]),
                NASA([1000.00, 5000.00],
                     [ 2.92664000E+00,  1.48797680E-03, -5.68476000E-07,
                       1.00970380E-10, -6.75335100E-15, -9.22797700E+02,
                       5.98052800E+00])),
        note='121286')

#-------------------------------------------------------------------------------
# Reaction data
#-------------------------------------------------------------------------------

# Reaction 1
reaction('H + O2 <=> O + OH', [1.915000e+14, 0.0, 16440.0])

# Reaction 2
reaction('O + H2 <=> H + OH', [5.080000e+04, 2.67, 6290.0])

# Reaction 3
reaction('H2 + OH <=> H2O + H', [2.160000e+08, 1.51, 3430.0])

# Reaction 4
reaction('OH + OH <=> O + H2O', [1.230000e+04, 2.62, -1880.0])

# Reaction 5
three_body_reaction('H2 + M <=> H + H + M', [4.577000e+19, -1.4, 104400.0],
                    efficiencies='H2:2.5 H2O:12.0')

# Reaction 6
three_body_reaction('O + O + M <=> O2 + M', [6.165000e+15, -0.5, 0.0],
                    efficiencies='H2:2.5 H2O:12.0')

# Reaction 7
three_body_reaction('O + H + M <=> OH + M', [4.714000e+18, -1.0, 0.0],
                    efficiencies='H2:2.5 H2O:12.0')

# Reaction 8
three_body_reaction('H + OH + M <=> H2O + M', [2.240000e+22, -2.0, 0.0],
                    efficiencies='H2:2.5 H2O:6.3')

# Reaction 9
three_body_reaction('H + O2 + M <=> HO2 + M', [6.170000e+19, -1.42, 0.0],
                    efficiencies='H2:2.5 H2O:12.0')

# Reaction 10
reaction('HO2 + H <=> H2 + O2', [6.630000e+13, 0.0, 2130.0])

# Reaction 11
reaction('HO2 + H <=> OH + OH', [1.690000e+14, 0.0, 874.0])

# Reaction 12
reaction('HO2 + O <=> O2 + OH', [1.810000e+13, 0.0, -400.0])

# Reaction 13
reaction('HO2 + OH <=> H2O + O2', [1.450000e+16, -1.0, 0.0])

# Reaction 14
reaction('HO2 + HO2 <=> H2O2 + O2', [3.020000e+12, 0.0, 1390.0])

# Reaction 15
three_body_reaction('H2O2 + M <=> OH + OH + M', [1.202000e+17, 0.0, 45500.0],
                    efficiencies='H2:2.5 H2O:12.0')

# Reaction 16
reaction('H2O2 + H <=> H2O + OH', [1.000000e+13, 0.0, 3590.0])

# Reaction 17
reaction('H2O2 + H <=> HO2 + H2', [4.820000e+13, 0.0, 7950.0])

# Reaction 18
reaction('H2O2 + O <=> OH + HO2', [9.550000e+06, 2.0, 3970.0])

# Reaction 19
reaction('H2O2 + OH <=> HO2 + H2O', [7.000000e+12, 0.0, 1430.0])
